---- qbsp / ericw-tools v0.18.1 ----
Input file: levelblockout.map
Output file: levelblockout.bsp

---- LoadMapFile ----
          781 faces
          129 brushes
           14 entities
            5 unique texnames
           58 texinfo

Opened WAD: C:/Users/Brooklyn/Downloads/quake-leveldesign-starterkit-master/quake-leveldesign-starterkit-master/wads/prototype_1_2.wad
Processing hull 0...
---- Brush_LoadEntity ----
          129 brushes
          206 planes
---- CSGFaces ----
          781 brushfaces
          834 csgfaces
          654 mergedfaces
---- SolidBSP ----
         1173 split nodes
          475 solid leafs
          696 empty leafs
            3 water leafs
            0 detail leafs
            0 detail illusionary leafs
            0 detail fence leafs
            0 illusionary visblocker leafs
         2023 leaffaces
         1847 nodefaces
---- Portalize ----
          699 vis leafs
          699 vis clusters
         2025 vis portals
---- FillOutside ----
*** WARNING 10: Reached occupant at (-768 752 40), no filling performed.
Leak file written to levelblockout.pts
---- MakeFaceEdges ----
---- GrowRegions ----
Processing hull 1...
*** WARNING 19: No entities in empty space -- no filling performed (hull 1)
Processing hull 2...
*** WARNING 19: No entities in empty space -- no filling performed (hull 2)
---- WriteBSPFile ----
Wrote levelblockout.bsp
          529 planes            10580
         2424 vertexes          29088
         1173 nodes             28152
           43 texinfo            1720
         1847 faces             36940
         2431 clipnodes         19448
          700 leafs             19600
         2023 marksurfaces       4046
         7352 surfedges         29408
         5037 edges             20148
            5 textures          92704
              lightdata             0
              visdata               0
              entdata            1098

0.172 seconds elapsed
Peak memory usage: 10965302 (10.5M)
