---- qbsp / ericw-tools v0.18.1 ----
Input file: levelblockout.map
Output file: levelblockout.bsp

---- LoadMapFile ----
         1446 faces
          239 brushes
          182 entities
           34 unique texnames
          361 texinfo

Opened WAD: C:/Users/Brooklyn/Downloads/quake-leveldesign-starterkit-master/quake-leveldesign-starterkit-master/wads/prototype_1_2.wad
Opened WAD: C:/Users/Brooklyn/Downloads/quake-leveldesign-starterkit-master/quake-leveldesign-starterkit-master/wads/hipnotic.wad
Opened WAD: C:/Users/Brooklyn/Downloads/quake-leveldesign-starterkit-master/quake-leveldesign-starterkit-master/wads/id1.wad
Processing hull 0...
---- Brush_LoadEntity ----
          239 brushes
          425 planes
---- CSGFaces ----
         1446 brushfaces
         1683 csgfaces
         1450 mergedfaces
---- SolidBSP ----
         2700 split nodes
         1090 solid leafs
         1580 empty leafs
           31 water leafs
            0 detail leafs
            0 detail illusionary leafs
            0 detail fence leafs
            0 illusionary visblocker leafs
         4121 leaffaces
         3818 nodefaces
---- Portalize ----
         1611 vis leafs
         1611 vis clusters
         4867 vis portals
---- FillOutside ----
*** WARNING 10: Reached occupant at (-768 752 40), no filling performed.
Leak file written to levelblockout.pts
---- MakeFaceEdges ----
---- GrowRegions ----
Processing hull 1...
Processing hull 2...
---- WriteBSPFile ----
Wrote levelblockout.bsp
          888 planes            17760
         4797 vertexes          57564
         2700 nodes             64800
          300 texinfo           12000
         3818 faces             76360
         2349 clipnodes         18792
         1612 leafs             45136
         4121 marksurfaces       8242
        15221 surfedges         60884
        10135 edges             40540
           34 textures         246300
              lightdata             0
              visdata               0
              entdata            8659

0.261 seconds elapsed
Peak memory usage: 19584946 (18.7M)
